Circuit: * E:\Digital Electronics\Lab02Part3.asc

Instance "m1": Length shorter than recommended for a level 1 MOSFET.

Date: Thu Feb 13 11:19:11 2020
Total elapsed time: 0.156 seconds.

tnom = 27
temp = 27
method = trap
totiter = 249
traniter = 0
tranpoints = 0
accept = 0
rejected = 0
matrix size = 5
fillins = 0
solver = Normal
Matrix Compiler1: 114 bytes object code size  0.1/0.1/[0.0]
Matrix Compiler2: 301 bytes object code size  0.1/0.1/[0.1]

