Circuit: * E:\Digital Electronics\Lab02\Lab02Part4.asc

Instance "m1": Length shorter than recommended for a level 1 MOSFET.
Instance "m2": Length shorter than recommended for a level 1 MOSFET.
Instance "m2": Width narrower than recommended for a level 1 MOSFET.

Date: Wed Feb 19 20:42:42 2020
Total elapsed time: 0.319 seconds.

tnom = 27
temp = 27
method = trap
totiter = 369
traniter = 0
tranpoints = 0
accept = 0
rejected = 0
matrix size = 5
fillins = 0
solver = Normal
Matrix Compiler1: 114 bytes object code size  0.3/0.2/[0.2]
Matrix Compiler2: 301 bytes object code size  0.3/0.3/[0.2]

