Circuit: * E:\Digital Electronics\Lab01.asc

Instance "m1": Length shorter than recommended for a level 1 MOSFET.
Instance "m1": Width narrower than recommended for a level 1 MOSFET.

Date: Thu Feb 06 10:59:43 2020
Total elapsed time: 0.130 seconds.

tnom = 27
temp = 27
method = trap
totiter = 244
traniter = 0
tranpoints = 0
accept = 0
rejected = 0
matrix size = 4
fillins = 0
solver = Normal
Matrix Compiler1: 118 bytes object code size  0.1/0.1/[0.0]
Matrix Compiler2: 216 bytes object code size  0.0/0.0/[0.0]

