Circuit: * F:\Digital Electronics\Lab05\Draft1.asc

Instance "m6": Length shorter than recommended for a level 1 MOSFET.
Instance "m6": Width narrower than recommended for a level 1 MOSFET.
Instance "m5": Length shorter than recommended for a level 1 MOSFET.
Instance "m5": Width narrower than recommended for a level 1 MOSFET.
Instance "m4": Length shorter than recommended for a level 1 MOSFET.
Instance "m4": Width narrower than recommended for a level 1 MOSFET.
Instance "m3": Length shorter than recommended for a level 1 MOSFET.
Instance "m3": Width narrower than recommended for a level 1 MOSFET.
Instance "m2": Length shorter than recommended for a level 1 MOSFET.
Instance "m2": Width narrower than recommended for a level 1 MOSFET.
Instance "m1": Length shorter than recommended for a level 1 MOSFET.
Instance "m1": Width narrower than recommended for a level 1 MOSFET.
Direct Newton iteration for .op point succeeded.

Date: Wed Apr 15 21:09:00 2020
Total elapsed time: 2.079 seconds.

tnom = 27
temp = 27
method = modified trap
totiter = 9152
traniter = 9124
tranpoints = 4326
accept = 4245
rejected = 81
matrix size = 12
fillins = 0
solver = Normal
Matrix Compiler1: 410 bytes object code size  0.5/0.1/[0.1]
Matrix Compiler2: off  [0.1]/0.2/0.2

