Circuit: * F:\Digital Electronics\Lab05\Lab05Pt1.asc

Unknown node in .ic card: "c2" -- ignoring
Unknown node in .ic card: "c1" -- ignoring
Instance "m14": Length shorter than recommended for a level 1 MOSFET.
Instance "m14": Width narrower than recommended for a level 1 MOSFET.
Instance "m13": Length shorter than recommended for a level 1 MOSFET.
Instance "m12": Length shorter than recommended for a level 1 MOSFET.
Instance "m11": Length shorter than recommended for a level 1 MOSFET.
Instance "m10": Length shorter than recommended for a level 1 MOSFET.
Instance "m9": Length shorter than recommended for a level 1 MOSFET.
Instance "m8": Length shorter than recommended for a level 1 MOSFET.
Instance "m7": Length shorter than recommended for a level 1 MOSFET.
Instance "m7": Width narrower than recommended for a level 1 MOSFET.
Instance "m6": Length shorter than recommended for a level 1 MOSFET.
Instance "m6": Width narrower than recommended for a level 1 MOSFET.
Instance "m5": Length shorter than recommended for a level 1 MOSFET.
Instance "m5": Width narrower than recommended for a level 1 MOSFET.
Instance "m4": Length shorter than recommended for a level 1 MOSFET.
Instance "m4": Width narrower than recommended for a level 1 MOSFET.
Instance "m2": Length shorter than recommended for a level 1 MOSFET.
Instance "m2": Width narrower than recommended for a level 1 MOSFET.
Instance "m1": Length shorter than recommended for a level 1 MOSFET.
Instance "m1": Width narrower than recommended for a level 1 MOSFET.
Direct Newton iteration for .op point succeeded.

Date: Wed Apr 22 19:44:20 2020
Total elapsed time: 31.446 seconds.

tnom = 27
temp = 27
method = modified trap
totiter = 80859
traniter = 80848
tranpoints = 40246
accept = 40185
rejected = 61
matrix size = 15
fillins = 2
solver = Normal
Matrix Compiler1: 1.12 KB object code size  1.8/1.0/[0.4]
Matrix Compiler2: 1.56 KB object code size  0.7/1.3/[0.4]

