Circuit: * E:\Digital Electronics\Lab03\Lab03Pt4.asc

Instance "m2": Length shorter than recommended for a level 1 MOSFET.
Instance "m2": Width narrower than recommended for a level 1 MOSFET.
Instance "m1": Length shorter than recommended for a level 1 MOSFET.

Date: Thu Feb 27 13:33:37 2020
Total elapsed time: 0.577 seconds.

tnom = 27
temp = 27
method = trap
totiter = 2436
traniter = 0
tranpoints = 0
accept = 0
rejected = 0
matrix size = 5
fillins = 0
solver = Normal
Matrix Compiler1: 132 bytes object code size  0.1/0.1/[0.0]
Matrix Compiler2: 335 bytes object code size  0.1/0.1/[0.1]

