Circuit: * E:\Digital Electronics\Lab03\Lab03Pt5.asc

Instance "m2": Length shorter than recommended for a level 1 MOSFET.
Instance "m2": Width narrower than recommended for a level 1 MOSFET.
Instance "m1": Length shorter than recommended for a level 1 MOSFET.
Instance "m1": Width narrower than recommended for a level 1 MOSFET.
Direct Newton iteration for .op point succeeded.

Date: Thu Mar 12 17:59:41 2020
Total elapsed time: 10.177 seconds.

tnom = 27
temp = 27
method = modified trap
totiter = 80186
traniter = 80178
tranpoints = 40089
accept = 40074
rejected = 15
matrix size = 5
fillins = 0
solver = Normal
Matrix Compiler1: 132 bytes object code size  0.3/0.2/[0.2]
Matrix Compiler2: 335 bytes object code size  0.3/0.4/[0.2]

