Circuit: * F:\Digital Electronics\Lab06\Lab06Pt1.asc

Instance "m6": Length shorter than recommended for a level 1 MOSFET.
Instance "m6": Width narrower than recommended for a level 1 MOSFET.
Instance "m5": Length shorter than recommended for a level 1 MOSFET.
Instance "m5": Width narrower than recommended for a level 1 MOSFET.
Instance "m4": Length shorter than recommended for a level 1 MOSFET.
Instance "m4": Width narrower than recommended for a level 1 MOSFET.
Instance "m3": Length shorter than recommended for a level 1 MOSFET.
Instance "m3": Width narrower than recommended for a level 1 MOSFET.
Instance "m7": Length shorter than recommended for a level 1 MOSFET.
Instance "m7": Width narrower than recommended for a level 1 MOSFET.
Instance "m2": Length shorter than recommended for a level 1 MOSFET.
Instance "m2": Width narrower than recommended for a level 1 MOSFET.
Instance "m1": Length shorter than recommended for a level 1 MOSFET.
Instance "m1": Width narrower than recommended for a level 1 MOSFET.
Direct Newton iteration for .op point succeeded.

Date: Wed Apr 15 21:28:53 2020
Total elapsed time: 2.395 seconds.

tnom = 27
temp = 27
method = modified trap
totiter = 8780
traniter = 8742
tranpoints = 4296
accept = 4216
rejected = 80
matrix size = 12
fillins = 0
solver = Normal
Matrix Compiler1: 410 bytes object code size  0.1/0.1/[0.1]
Matrix Compiler2: off  [0.1]/0.3/0.1

